Version 4
SHEET 1 880 680
WIRE -128 -48 -464 -48
WIRE 272 -48 -128 -48
WIRE 288 -48 272 -48
WIRE 384 -48 368 -48
WIRE 576 -48 512 -48
WIRE 672 -48 656 -48
WIRE 384 -32 384 -48
WIRE 512 -32 512 -48
WIRE 672 -32 672 -48
WIRE 192 0 -192 0
WIRE -400 16 -528 16
WIRE -64 32 -176 32
WIRE -464 48 -464 -48
WIRE -128 48 -128 -48
WIRE 192 48 192 0
WIRE -528 64 -528 16
WIRE -496 64 -528 64
WIRE -176 64 -176 32
WIRE -160 64 -176 64
WIRE 160 64 64 64
WIRE -400 80 -400 16
WIRE -400 80 -432 80
WIRE -384 80 -400 80
WIRE -272 80 -320 80
WIRE -64 80 -64 32
WIRE -64 80 -96 80
WIRE -48 80 -64 80
WIRE 64 80 64 64
WIRE 64 80 32 80
WIRE 288 80 224 80
WIRE 320 80 288 80
WIRE 512 80 512 32
WIRE 512 80 400 80
WIRE -496 96 -656 96
WIRE -272 96 -272 80
WIRE -160 96 -272 96
WIRE 160 96 144 96
WIRE -272 112 -272 96
WIRE 64 112 64 80
WIRE 512 112 512 80
WIRE 192 128 192 112
WIRE 272 128 272 -48
WIRE 272 128 192 128
WIRE 144 176 144 96
WIRE 176 176 144 176
WIRE 288 176 288 80
WIRE 288 176 256 176
WIRE 64 192 64 176
WIRE 144 192 144 176
WIRE 512 192 512 176
WIRE 672 192 512 192
WIRE -272 208 -272 192
WIRE 672 208 672 192
WIRE -656 272 -656 96
WIRE -464 288 -464 112
WIRE -192 288 -192 0
WIRE -192 288 -464 288
WIRE -128 288 -128 112
WIRE -128 288 -192 288
WIRE -64 288 -128 288
WIRE 32 288 16 288
WIRE 144 288 144 272
WIRE 32 304 32 288
WIRE -656 368 -656 352
FLAG 672 208 0
FLAG 672 -32 0
FLAG -272 208 0
FLAG 64 192 0
FLAG 144 288 0
FLAG 512 80 ADC
FLAG 384 -32 0
FLAG 32 304 0
FLAG -656 368 0
FLAG -656 96 Vin
SYMBOL schottky 528 176 R180
WINDOW 0 24 64 Left 2
WINDOW 3 24 0 Left 2
SYMATTR InstName D2
SYMBOL schottky 528 32 R180
WINDOW 0 24 64 Left 2
WINDOW 3 24 0 Left 2
SYMATTR InstName D1
SYMBOL res 416 64 R90
WINDOW 0 0 56 VBottom 2
WINDOW 3 32 56 VTop 2
SYMATTR InstName R1
SYMATTR Value 100
SYMBOL voltage 560 -48 R270
WINDOW 0 32 56 VTop 2
WINDOW 3 -32 56 VBottom 2
SYMATTR InstName V1
SYMATTR Value 3.3V
SYMBOL voltage -656 256 R0
WINDOW 123 24 124 Left 2
WINDOW 39 0 0 Left 0
WINDOW 3 24 44 Left 2
SYMATTR Value SINE(0.5 0.035 1 0 0 0 0)
SYMATTR InstName V2
SYMBOL OpAmps\\UniversalOpAmp -464 80 R0
SYMATTR InstName U1
SYMBOL OpAmps\\UniversalOpAmp -128 80 R0
SYMATTR InstName U2
SYMBOL res 48 64 R90
WINDOW 0 0 56 VBottom 2
WINDOW 3 32 56 VTop 2
SYMATTR InstName R2
SYMATTR Value 10k
SYMBOL cap -320 64 R90
WINDOW 0 0 32 VBottom 2
WINDOW 3 32 32 VTop 2
SYMATTR InstName C1
SYMATTR Value 21.22µ
SYMBOL res -288 96 R0
SYMATTR InstName R4
SYMATTR Value 10k
SYMBOL cap 48 112 R0
SYMATTR InstName C2
SYMATTR Value 3.9788µ
SYMBOL OpAmps\\UniversalOpAmp 192 80 M180
SYMATTR InstName U3
SYMBOL res 128 176 R0
SYMATTR InstName R5
SYMATTR Value 1k
SYMBOL res 272 160 R90
WINDOW 0 0 56 VBottom 2
WINDOW 3 32 56 VTop 2
SYMATTR InstName R6
SYMATTR Value 100k
SYMBOL voltage 272 -48 R270
WINDOW 0 32 56 VTop 2
WINDOW 3 -32 56 VBottom 2
SYMATTR InstName V3
SYMATTR Value 10V
SYMBOL voltage -80 288 R270
WINDOW 0 32 56 VTop 2
WINDOW 3 -32 56 VBottom 2
SYMATTR InstName V5
SYMATTR Value -10V
TEXT -72 -120 Left 2 !.tran 0 10 0 1ms
TEXT -72 -88 Left 2 ;.ac dec 100 0.1 10
